 1.(x)day is 2022-03-11

1) the first tip.
2) the second tips.
 2.(x)what is your name?

 3.(x)That is a good job!
1) 1
2) 2

 4.(x) no

 5.(-) xxxx

 6.(x) new add

 7.(x) new add 2

 8.(x)new add 3

 9.(x) new add 4

10.(-).(-) new add 5 What is your name?
New line.

11.(y) this is the 11th content

12.(x) this is the 12th content

13.(-) add the 3th conentWhat is your name? 1) the next line!

